Circuit: * \\vmware-host\Shared Folders\non-work-projects\battery-simulator\ltspice\Draft1.asc

Direct Newton iteration failed to find .op point.  (Use ".option noopiter" to skip.)
Starting Gmin stepping
Gmin = 10
Gmin = 1.07374
Gmin = 0.115292
Gmin = 0.0123794
Gmin = 0.00132923
Gmin = 0.000142725
Gmin = 1.5325e-05
Gmin = 1.6455e-06
Gmin = 1.76685e-07
Gmin = 1.89714e-08
Gmin = 2.03704e-09
Gmin = 2.18725e-10
Gmin = 2.34854e-11
Gmin = 2.52173e-12
Gmin = 2.70769e-13
Gmin = 0
Gmin stepping succeeded in finding the operating point.


Date: Tue Jan 16 18:48:17 2024
Total elapsed time: 0.345 seconds.

tnom = 27
temp = 27
method = Gear
totiter = 3937
traniter = 3587
tranpoints = 1559
accept = 1415
rejected = 144
matrix size = 67
fillins = 57
solver = Normal
Avg thread counts: 1.1/1.1/1.1/1.1
Matrix Compiler1: 11.13 KB object code size  2.0/1.6/[0.9]
Matrix Compiler2: 8.32 KB object code size  1.0/1.5/[0.7]

